Version 4
SHEET 1 1332 680
WIRE -672 -160 -672 -208
WIRE -400 -160 -400 -208
WIRE 144 -128 64 -128
WIRE 64 -112 64 -128
WIRE 192 -64 192 -112
WIRE 240 -64 192 -64
WIRE 144 -48 144 -128
WIRE 144 -48 112 -48
WIRE -672 -32 -672 -80
WIRE -400 -32 -400 -80
WIRE 240 -32 240 -64
WIRE 192 -16 192 -64
WIRE 144 0 144 -48
WIRE 160 0 144 0
WIRE 240 16 240 0
WIRE 240 16 224 16
WIRE 288 16 240 16
WIRE -16 32 -32 32
WIRE 96 32 64 32
WIRE 112 32 96 32
WIRE 160 32 112 32
WIRE 192 96 192 48
FLAG -96 32 W1
IOPIN -96 32 In
FLAG -672 -32 0
FLAG -672 -208 W1
IOPIN -672 -208 In
FLAG -400 -32 0
FLAG -400 -208 Vb
IOPIN -400 -208 In
FLAG 192 -112 Vb
IOPIN 192 -112 In
FLAG 64 -112 0
FLAG 192 96 0
FLAG 96 96 0
SYMBOL voltage -672 -176 R0
WINDOW 3 -259 214 Left 2
WINDOW 123 0 0 Left 0
WINDOW 39 0 0 Left 0
SYMATTR Value SINE(0 1 1000 0.1p 0.1p 0.5 1000000)
SYMATTR InstName V1
SYMBOL cap -32 16 R90
WINDOW 0 0 32 VBottom 2
WINDOW 3 32 32 VTop 2
SYMATTR InstName C4
SYMATTR Value 100nF
SYMBOL voltage -400 -176 R0
WINDOW 123 0 0 Left 0
WINDOW 39 0 0 Left 0
SYMATTR InstName V3
SYMATTR Value 3.3
SYMBOL SBORKA\\COMPARATOR\\lm393 192 16 R0
SYMATTR InstName U1
SYMBOL MiniSyms4\\res- 240 -16 R0
WINDOW 3 16 18 Center 0
WINDOW 0 17 -2 Left 0
SYMATTR Value 10k
SYMATTR InstName R1
SYMBOL schottky 112 96 R180
WINDOW 0 -37 31 Left 2
WINDOW 3 -16 -39 Left 2
SYMATTR InstName D1
SYMATTR Value 1N5819
SYMATTR Description Diode
SYMATTR Type diode
SYMBOL res 80 16 R90
WINDOW 0 0 56 VBottom 2
WINDOW 3 32 56 VTop 2
SYMATTR InstName R2
SYMATTR Value 1k
SYMBOL res 96 -64 R0
WINDOW 0 -28 29 Left 2
WINDOW 3 -35 65 Left 2
SYMATTR InstName R3
SYMATTR Value 10k
TEXT -104 -136 Left 2 !.tran 50ms
